POPC

Created by GaussView 6.0.16
134133  0  0  0  0  0  0  0  0999 V2000
   -0.6401    0.0905    0.0350 N   0  0  0  0  0  0  0  0  0  0  0  0
   -0.1606   -1.2767    0.2814 C   0  0  0  0  0  0  0  0  0  0  0  0
   -0.2855   -1.5176    1.3164 H   0  0  0  0  0  0  0  0  0  0  0  0
   -0.7227   -1.9647   -0.3153 H   0  0  0  0  0  0  0  0  0  0  0  0
    0.8755   -1.3433    0.0221 H   0  0  0  0  0  0  0  0  0  0  0  0
    0.1331    1.0337    0.8546 C   0  0  0  0  0  0  0  0  0  0  0  0
   -0.2152    2.0297    0.6778 H   0  0  0  0  0  0  0  0  0  0  0  0
    0.0096    0.7910    1.8894 H   0  0  0  0  0  0  0  0  0  0  0  0
    1.1688    0.9664    0.5935 H   0  0  0  0  0  0  0  0  0  0  0  0
   -0.4691    0.4211   -1.3869 C   0  0  0  0  0  0  0  0  0  0  0  0
   -1.0313   -0.2671   -1.9832 H   0  0  0  0  0  0  0  0  0  0  0  0
   -0.8188    1.4165   -1.5661 H   0  0  0  0  0  0  0  0  0  0  0  0
    0.5666    0.3545   -1.6466 H   0  0  0  0  0  0  0  0  0  0  0  0
   -2.0645    0.1817    0.3867 C   0  0  0  0  0  0  0  0  0  0  0  0
   -2.1935   -0.0492    1.4236 H   0  0  0  0  0  0  0  0  0  0  0  0
   -2.6201   -0.5143   -0.2059 H   0  0  0  0  0  0  0  0  0  0  0  0
   -2.5748    1.6078    0.1095 C   0  0  0  0  0  0  0  0  0  0  0  0
   -2.0288    2.3085    0.7066 H   0  0  0  0  0  0  0  0  0  0  0  0
   -2.4364    1.8392   -0.9262 H   0  0  0  0  0  0  0  0  0  0  0  0
   -3.9666    1.6822    0.4316 O   0  0  0  0  0  0  0  0  0  0  0  0
   -4.5599    3.2451    0.0727 P   0  0  0  0  0  0  0  0  0  0  0  0
   -4.2955    3.5838   -1.5822 O   0  0  0  0  0  0  0  0  0  0  0  0
   -3.7445    4.4033    1.0300 O   0  0  0  0  0  0  0  0  0  0  0  0
   -6.2374    3.3047    0.4009 O   0  0  0  0  0  0  0  0  0  0  0  0
   -6.7472    4.6014    0.0760 C   0  0  0  0  0  0  0  0  0  0  0  0
   -6.5328    4.8211   -0.9487 H   0  0  0  0  0  0  0  0  0  0  0  0
   -6.2854    5.3360    0.7024 H   0  0  0  0  0  0  0  0  0  0  0  0
   -8.2723    4.6186    0.2930 C   0  0  0  0  0  0  0  0  0  0  0  0
   -8.7248    3.8781   -0.3335 H   0  0  0  0  0  0  0  0  0  0  0  0
   -8.5711    4.3297    1.6611 O   0  0  0  0  0  0  0  0  0  0  0  0
   -8.8155    6.0158   -0.0639 C   0  0  0  0  0  0  0  0  0  0  0  0
   -8.5990    6.2293   -1.0895 H   0  0  0  0  0  0  0  0  0  0  0  0
   -8.3423    6.7435    0.5618 H   0  0  0  0  0  0  0  0  0  0  0  0
  -10.2297    6.0723    0.1413 O   0  0  0  0  0  0  0  0  0  0  0  0
  -10.6513    7.4091   -0.1489 C   0  0  0  0  0  0  0  0  0  0  0  0
   -9.9700    4.0531    1.7899 C   0  0  0  0  0  0  0  0  0  0  0  0
  -10.7855    4.4680    0.9242 O   0  0  0  0  0  0  0  0  0  0  0  0
  -10.6493    8.2784    0.7614 O   0  0  0  0  0  0  0  0  0  0  0  0
  -11.0990    7.7917   -1.5704 C   0  0  0  0  0  0  0  0  0  0  0  0
  -10.2444    8.0816   -2.1464 H   0  0  0  0  0  0  0  0  0  0  0  0
  -11.5736    6.9518   -2.0342 H   0  0  0  0  0  0  0  0  0  0  0  0
  -12.0846    8.9748   -1.4983 C   0  0  0  0  0  0  0  0  0  0  0  0
  -11.5993    9.8081   -1.0337 H   0  0  0  0  0  0  0  0  0  0  0  0
  -12.3891    9.2438   -2.4881 H   0  0  0  0  0  0  0  0  0  0  0  0
  -13.3251    8.5843   -0.6731 C   0  0  0  0  0  0  0  0  0  0  0  0
  -13.0262    8.3076    0.3168 H   0  0  0  0  0  0  0  0  0  0  0  0
  -13.8201    7.7583   -1.1383 H   0  0  0  0  0  0  0  0  0  0  0  0
  -14.2801    9.7928   -0.6049 C   0  0  0  0  0  0  0  0  0  0  0  0
  -13.7771   10.6140   -0.1385 H   0  0  0  0  0  0  0  0  0  0  0  0
  -14.5734   10.0683   -1.5963 H   0  0  0  0  0  0  0  0  0  0  0  0
  -15.5337    9.4322    0.2155 C   0  0  0  0  0  0  0  0  0  0  0  0
  -15.2453    9.1515    1.2069 H   0  0  0  0  0  0  0  0  0  0  0  0
  -16.0452    8.6164   -0.2505 H   0  0  0  0  0  0  0  0  0  0  0  0
  -16.4636   10.6594    0.2781 C   0  0  0  0  0  0  0  0  0  0  0  0
  -15.9449   11.4714    0.7432 H   0  0  0  0  0  0  0  0  0  0  0  0
  -16.7504   10.9395   -0.7139 H   0  0  0  0  0  0  0  0  0  0  0  0
  -17.7233   10.3225    1.0977 C   0  0  0  0  0  0  0  0  0  0  0  0
  -18.2488    9.5148    0.6331 H   0  0  0  0  0  0  0  0  0  0  0  0
  -17.4394   10.0382    2.0896 H   0  0  0  0  0  0  0  0  0  0  0  0
  -18.6318   11.5657    1.1586 C   0  0  0  0  0  0  0  0  0  0  0  0
  -18.0999   12.3688    1.6246 H   0  0  0  0  0  0  0  0  0  0  0  0
  -18.9121   11.8504    0.1663 H   0  0  0  0  0  0  0  0  0  0  0  0
  -19.8986   11.2501    1.9768 C   0  0  0  0  0  0  0  0  0  0  0  0
  -20.4367   10.4519    1.5099 H   0  0  0  0  0  0  0  0  0  0  0  0
  -19.6211   10.9599    2.9688 H   0  0  0  0  0  0  0  0  0  0  0  0
  -20.7889   12.5056    2.0393 C   0  0  0  0  0  0  0  0  0  0  0  0
  -21.0650   12.7962    1.0475 H   0  0  0  0  0  0  0  0  0  0  0  0
  -20.2479   13.3021    2.5072 H   0  0  0  0  0  0  0  0  0  0  0  0
  -22.0585   12.2002    2.8565 C   0  0  0  0  0  0  0  0  0  0  0  0
  -22.6017   11.4049    2.3902 H   0  0  0  0  0  0  0  0  0  0  0  0
  -21.7834   11.9095    3.8490 H   0  0  0  0  0  0  0  0  0  0  0  0
  -22.9410   13.4621    2.9155 C   0  0  0  0  0  0  0  0  0  0  0  0
  -23.2164   13.7500    1.9224 H   0  0  0  0  0  0  0  0  0  0  0  0
  -22.3944   14.2567    3.3792 H   0  0  0  0  0  0  0  0  0  0  0  0
  -24.2127   13.1691    3.7354 C   0  0  0  0  0  0  0  0  0  0  0  0
  -24.7602   12.3750    3.2722 H   0  0  0  0  0  0  0  0  0  0  0  0
  -23.9387   12.8811    4.7290 H   0  0  0  0  0  0  0  0  0  0  0  0
  -25.0894   14.4360    3.7901 C   0  0  0  0  0  0  0  0  0  0  0  0
  -25.3593   14.7258    2.7959 H   0  0  0  0  0  0  0  0  0  0  0  0
  -24.5413   15.2284    4.2564 H   0  0  0  0  0  0  0  0  0  0  0  0
  -26.3655   14.1472    4.6032 C   0  0  0  0  0  0  0  0  0  0  0  0
  -26.9718   15.0284    4.6407 H   0  0  0  0  0  0  0  0  0  0  0  0
  -26.9144   13.3565    4.1365 H   0  0  0  0  0  0  0  0  0  0  0  0
  -26.0974   13.8569    5.5975 H   0  0  0  0  0  0  0  0  0  0  0  0
  -10.4646    3.2314    2.9945 C   0  0  0  0  0  0  0  0  0  0  0  0
  -10.3654    2.1873    2.7808 H   0  0  0  0  0  0  0  0  0  0  0  0
   -9.8744    3.4796    3.8515 H   0  0  0  0  0  0  0  0  0  0  0  0
  -11.9481    3.5401    3.2713 C   0  0  0  0  0  0  0  0  0  0  0  0
  -12.5312    3.2540    2.4207 H   0  0  0  0  0  0  0  0  0  0  0  0
  -12.2668    2.9854    4.1284 H   0  0  0  0  0  0  0  0  0  0  0  0
  -12.1530    5.0432    3.5285 C   0  0  0  0  0  0  0  0  0  0  0  0
  -11.5734    5.3554    4.3718 H   0  0  0  0  0  0  0  0  0  0  0  0
  -11.8470    5.5968    2.6651 H   0  0  0  0  0  0  0  0  0  0  0  0
  -13.6502    5.2886    3.8048 C   0  0  0  0  0  0  0  0  0  0  0  0
  -14.2234    4.9420    2.9709 H   0  0  0  0  0  0  0  0  0  0  0  0
  -13.9376    4.7529    4.6858 H   0  0  0  0  0  0  0  0  0  0  0  0
  -13.9187    6.7902    4.0042 C   0  0  0  0  0  0  0  0  0  0  0  0
  -13.3510    7.1556    4.8346 H   0  0  0  0  0  0  0  0  0  0  0  0
  -13.6357    7.3212    3.1196 H   0  0  0  0  0  0  0  0  0  0  0  0
  -15.4216    6.9981    4.2712 C   0  0  0  0  0  0  0  0  0  0  0  0
  -15.9864    6.6072    3.4508 H   0  0  0  0  0  0  0  0  0  0  0  0
  -15.6972    6.4876    5.1703 H   0  0  0  0  0  0  0  0  0  0  0  0
  -15.7191    8.4999    4.4169 C   0  0  0  0  0  0  0  0  0  0  0  0
  -15.4463    9.0047    3.5130 H   0  0  0  0  0  0  0  0  0  0  0  0
  -15.1562    8.9028    5.2328 H   0  0  0  0  0  0  0  0  0  0  0  0
  -17.2242    8.6933    4.6821 C   0  0  0  0  0  0  0  0  0  0  0  0
  -17.9279    7.9816    4.3080 H   0  0  0  0  0  0  0  0  0  0  0  0
  -17.6575    9.7663    5.3846 C   0  0  0  0  0  0  0  0  0  0  0  0
  -18.7018    9.8952    5.5824 H   0  0  0  0  0  0  0  0  0  0  0  0
  -16.6443   10.8040    5.8966 C   0  0  0  0  0  0  0  0  0  0  0  0
  -16.3185   10.5347    6.8795 H   0  0  0  0  0  0  0  0  0  0  0  0
  -15.8020   10.8335    5.2374 H   0  0  0  0  0  0  0  0  0  0  0  0
  -17.3132   12.1900    5.9346 C   0  0  0  0  0  0  0  0  0  0  0  0
  -17.6443   12.4526    4.9516 H   0  0  0  0  0  0  0  0  0  0  0  0
  -18.1521   12.1632    6.5987 H   0  0  0  0  0  0  0  0  0  0  0  0
  -16.3003   13.2379    6.4277 C   0  0  0  0  0  0  0  0  0  0  0  0
  -15.9666   12.9795    7.4111 H   0  0  0  0  0  0  0  0  0  0  0  0
  -15.4625   13.2636    5.7626 H   0  0  0  0  0  0  0  0  0  0  0  0
  -16.9739   14.6216    6.4598 C   0  0  0  0  0  0  0  0  0  0  0  0
  -17.3155   14.8756    5.4779 H   0  0  0  0  0  0  0  0  0  0  0  0
  -17.8063   14.5968    7.1316 H   0  0  0  0  0  0  0  0  0  0  0  0
  -15.9579   15.6744    6.9367 C   0  0  0  0  0  0  0  0  0  0  0  0
  -15.1289   15.7008    6.2603 H   0  0  0  0  0  0  0  0  0  0  0  0
  -15.6117   15.4186    7.9158 H   0  0  0  0  0  0  0  0  0  0  0  0
  -16.6326   17.0574    6.9771 C   0  0  0  0  0  0  0  0  0  0  0  0
  -16.9810   17.3147    5.9982 H   0  0  0  0  0  0  0  0  0  0  0  0
  -17.4606   17.0297    7.6540 H   0  0  0  0  0  0  0  0  0  0  0  0
  -15.6138   18.1088    7.4533 C   0  0  0  0  0  0  0  0  0  0  0  0
  -14.7882   18.1389    6.7727 H   0  0  0  0  0  0  0  0  0  0  0  0
  -15.2623   17.8481    8.4295 H   0  0  0  0  0  0  0  0  0  0  0  0
  -16.2882   19.4921    7.5043 C   0  0  0  0  0  0  0  0  0  0  0  0
  -15.5792   20.2217    7.8348 H   0  0  0  0  0  0  0  0  0  0  0  0
  -16.6407   19.7536    6.5286 H   0  0  0  0  0  0  0  0  0  0  0  0
  -17.1128   19.4614    8.1851 H   0  0  0  0  0  0  0  0  0  0  0  0
  1  2  1  0  0  0  0
  1  6  1  0  0  0  0
  1 10  1  0  0  0  0
  1 14  1  0  0  0  0
  2  3  1  0  0  0  0
  2  4  1  0  0  0  0
  2  5  1  0  0  0  0
  6  7  1  0  0  0  0
  6  8  1  0  0  0  0
  6  9  1  0  0  0  0
 10 11  1  0  0  0  0
 10 12  1  0  0  0  0
 10 13  1  0  0  0  0
 14 15  1  0  0  0  0
 14 16  1  0  0  0  0
 14 17  1  0  0  0  0
 17 18  1  0  0  0  0
 17 19  1  0  0  0  0
 17 20  1  0  0  0  0
 20 21  1  0  0  0  0
 21 22  1  0  0  0  0
 21 23  2  0  0  0  0
 21 24  1  0  0  0  0
 24 25  1  0  0  0  0
 25 26  1  0  0  0  0
 25 27  1  0  0  0  0
 25 28  1  0  0  0  0
 28 29  1  0  0  0  0
 28 30  1  0  0  0  0
 28 31  1  0  0  0  0
 30 36  1  0  0  0  0
 31 32  1  0  0  0  0
 31 33  1  0  0  0  0
 31 34  1  0  0  0  0
 34 35  1  0  0  0  0
 35 38  2  0  0  0  0
 35 39  1  0  0  0  0
 36 37  2  0  0  0  0
 36 85  1  0  0  0  0
 39 40  1  0  0  0  0
 39 41  1  0  0  0  0
 39 42  1  0  0  0  0
 42 43  1  0  0  0  0
 42 44  1  0  0  0  0
 42 45  1  0  0  0  0
 45 46  1  0  0  0  0
 45 47  1  0  0  0  0
 45 48  1  0  0  0  0
 48 49  1  0  0  0  0
 48 50  1  0  0  0  0
 48 51  1  0  0  0  0
 51 52  1  0  0  0  0
 51 53  1  0  0  0  0
 51 54  1  0  0  0  0
 54 55  1  0  0  0  0
 54 56  1  0  0  0  0
 54 57  1  0  0  0  0
 57 58  1  0  0  0  0
 57 59  1  0  0  0  0
 57 60  1  0  0  0  0
 60 61  1  0  0  0  0
 60 62  1  0  0  0  0
 60 63  1  0  0  0  0
 63 64  1  0  0  0  0
 63 65  1  0  0  0  0
 63 66  1  0  0  0  0
 66 67  1  0  0  0  0
 66 68  1  0  0  0  0
 66 69  1  0  0  0  0
 69 70  1  0  0  0  0
 69 71  1  0  0  0  0
 69 72  1  0  0  0  0
 72 73  1  0  0  0  0
 72 74  1  0  0  0  0
 72 75  1  0  0  0  0
 75 76  1  0  0  0  0
 75 77  1  0  0  0  0
 75 78  1  0  0  0  0
 78 79  1  0  0  0  0
 78 80  1  0  0  0  0
 78 81  1  0  0  0  0
 81 82  1  0  0  0  0
 81 83  1  0  0  0  0
 81 84  1  0  0  0  0
 85 86  1  0  0  0  0
 85 87  1  0  0  0  0
 85 88  1  0  0  0  0
 88 89  1  0  0  0  0
 88 90  1  0  0  0  0
 88 91  1  0  0  0  0
 91 92  1  0  0  0  0
 91 93  1  0  0  0  0
 91 94  1  0  0  0  0
 94 95  1  0  0  0  0
 94 96  1  0  0  0  0
 94 97  1  0  0  0  0
 97 98  1  0  0  0  0
 97 99  1  0  0  0  0
 97100  1  0  0  0  0
100101  1  0  0  0  0
100102  1  0  0  0  0
100103  1  0  0  0  0
103104  1  0  0  0  0
103105  1  0  0  0  0
103106  1  0  0  0  0
106107  1  0  0  0  0
106108  2  0  0  0  0
108109  1  0  0  0  0
108110  1  0  0  0  0
110111  1  0  0  0  0
110112  1  0  0  0  0
110113  1  0  0  0  0
113114  1  0  0  0  0
113115  1  0  0  0  0
113116  1  0  0  0  0
116117  1  0  0  0  0
116118  1  0  0  0  0
116119  1  0  0  0  0
119120  1  0  0  0  0
119121  1  0  0  0  0
119122  1  0  0  0  0
122123  1  0  0  0  0
122124  1  0  0  0  0
122125  1  0  0  0  0
125126  1  0  0  0  0
125127  1  0  0  0  0
125128  1  0  0  0  0
128129  1  0  0  0  0
128130  1  0  0  0  0
128131  1  0  0  0  0
131132  1  0  0  0  0
131133  1  0  0  0  0
131134  1  0  0  0  0
M  CHG  2   1   1   22  -1
M  END
