LDMOEFOXLIZJOW-UHFFFAOYSA-M
        DY          3D

 41 40  0  0  0  0  0  0  0  0999 V2000
   -5.4257   -0.5771   -1.3305  C  0  0  0  0  0  0  0  0  0  0  0  0
   -5.3915    0.8585   -0.8227  C  0  0  0  0  0  0  0  0  0  0  0  0
   -3.9176    1.2229   -0.6482  C  0  0  0  0  0  0  0  0  0  0  0  0
   -3.3722    0.2334    0.3612  C  0  0  0  0  0  0  0  0  0  0  0  0
   -1.8973    0.4886    0.6279  C  0  0  0  0  0  0  0  0  0  0  0  0
   -1.4773   -0.5497    1.6375  C  0  0  0  0  0  0  0  0  0  0  0  0
   -0.0378   -0.3720    1.9798  C  0  0  0  0  0  0  0  0  0  0  0  0
    0.8112   -0.5331    0.7517  C  0  0  0  0  0  0  0  0  0  0  0  0
    2.2573   -0.3472    1.2352  C  0  0  0  0  0  0  0  0  0  0  0  0
    3.1660   -0.5023    0.0181  C  0  0  0  0  0  0  0  0  0  0  0  0
    4.5660   -0.3162    0.5199  C  0  0  0  0  0  0  0  0  0  0  0  0
    5.5424   -0.4782   -0.6040  C  0  0  0  0  0  0  0  0  0  0  0  0
    5.2533    0.7080   -1.8669  S  0  0  0  0  0  0  0  0  0  0  0  0
    3.9702    0.5276   -2.5984  O  0  0  0  0  0  0  0  0  0  0  0  0
    6.3539    0.4727   -2.9101  O  0  0  0  0  0  0  0  0  0  0  0  0
    5.3697    2.2777   -1.3010  O  0  0  0  0  0  0  0  0  0  0  0  0
   -4.5180   -0.7386   -1.9310  H  0  0  0  0  0  0  0  0  0  0  0  0
   -6.3364   -0.6828   -1.9762  H  0  0  0  0  0  0  0  0  0  0  0  0
   -5.4430   -1.2700   -0.4851  H  0  0  0  0  0  0  0  0  0  0  0  0
   -5.9128    1.5594   -1.4872  H  0  0  0  0  0  0  0  0  0  0  0  0
   -5.9139    0.8494    0.1532  H  0  0  0  0  0  0  0  0  0  0  0  0
   -3.3538    1.0435   -1.5785  H  0  0  0  0  0  0  0  0  0  0  0  0
   -3.7832    2.2649   -0.3549  H  0  0  0  0  0  0  0  0  0  0  0  0
   -3.5205   -0.7802   -0.0106  H  0  0  0  0  0  0  0  0  0  0  0  0
   -3.9099    0.3744    1.3027  H  0  0  0  0  0  0  0  0  0  0  0  0
   -1.8134    1.5152    1.0107  H  0  0  0  0  0  0  0  0  0  0  0  0
   -1.3369    0.4448   -0.3112  H  0  0  0  0  0  0  0  0  0  0  0  0
   -2.1280   -0.5444    2.5358  H  0  0  0  0  0  0  0  0  0  0  0  0
   -1.6355   -1.5718    1.1895  H  0  0  0  0  0  0  0  0  0  0  0  0
    0.2641   -1.0570    2.7987  H  0  0  0  0  0  0  0  0  0  0  0  0
    0.1747    0.6508    2.3874  H  0  0  0  0  0  0  0  0  0  0  0  0
    0.7007   -1.5279    0.2804  H  0  0  0  0  0  0  0  0  0  0  0  0
    0.6064    0.2224   -0.0249  H  0  0  0  0  0  0  0  0  0  0  0  0
    2.3205    0.6756    1.6216  H  0  0  0  0  0  0  0  0  0  0  0  0
    2.4306   -1.1238    1.9885  H  0  0  0  0  0  0  0  0  0  0  0  0
    3.0321   -1.4767   -0.4467  H  0  0  0  0  0  0  0  0  0  0  0  0
    2.8850    0.3699   -0.6251  H  0  0  0  0  0  0  0  0  0  0  0  0
    4.6562    0.6920    1.0094  H  0  0  0  0  0  0  0  0  0  0  0  0
    4.7606   -1.0308    1.3572  H  0  0  0  0  0  0  0  0  0  0  0  0
    6.6032   -0.4746   -0.2498  H  0  0  0  0  0  0  0  0  0  0  0  0
    5.4005   -1.4974   -1.0728  H  0  0  0  0  0  0  0  0  0  0  0  0
  1  2  1  0
  1 17  1  0
  1 18  1  0
  1 19  1  0
  2  3  1  0
  2 20  1  0
  2 21  1  0
  3  4  1  0
  3 22  1  0
  3 23  1  0
  4  5  1  0
  4 24  1  0
  4 25  1  0
  5  6  1  0
  5 26  1  0
  5 27  1  0
  6  7  1  0
  6 28  1  0
  6 29  1  0
  7  8  1  0
  7 30  1  0
  7 31  1  0
  8  9  1  0
  8 32  1  0
  8 33  1  0
  9 10  1  0
  9 34  1  0
  9 35  1  0
 10 11  1  0
 10 36  1  0
 10 37  1  0
 11 12  1  0
 11 38  1  0
 11 39  1  0
 12 13  1  0
 12 40  1  0
 12 41  1  0
 13 14  2  0
 13 15  2  0
 13 16  1  0
M  CHG  1  16  -1
M  END
$$$$
