LYCAIKOWRPUZTN-UHFFFAOYSA-N
        DY          3D

 10  9  0  0  0  0  0  0  0  0999 V2000
   -1.7114    0.2684   -0.3867  O  0  0  0  0  0  0  0  0  0  0  0  0
   -0.4846   -0.3867   -0.3143  C  0  0  0  0  0  0  0  0  0  0  0  0
    0.6026    0.5814    0.0973  C  0  0  0  0  0  0  0  0  0  0  0  0
    1.8426   -0.0492    0.1775  O  0  0  0  0  0  0  0  0  0  0  0  0
   -2.1860    0.2496    0.4998  H  0  0  0  0  0  0  0  0  0  0  0  0
   -0.2893   -0.8756   -1.2800  H  0  0  0  0  0  0  0  0  0  0  0  0
   -0.5626   -1.1560    0.5046  H  0  0  0  0  0  0  0  0  0  0  0  0
    0.3200    0.9553    1.1122  H  0  0  0  0  0  0  0  0  0  0  0  0
    0.7012    1.4279   -0.5852  H  0  0  0  0  0  0  0  0  0  0  0  0
    1.7675   -1.0152    0.1749  H  0  0  0  0  0  0  0  0  0  0  0  0
  1  2  1  0
  1  5  1  0
  2  3  1  0
  2  6  1  0
  2  7  1  0
  3  4  1  0
  3  8  1  0
  3  9  1  0
  4 10  1  0
M  END
